Version 4
SHEET 1 1136 680
WIRE 448 -32 448 -48
WIRE 480 -32 448 -32
WIRE 448 -16 448 -32
WIRE 400 0 368 0
WIRE 480 32 480 -32
WIRE 480 32 448 32
WIRE 368 96 368 0
WIRE 368 96 352 96
WIRE 448 96 448 80
WIRE 480 96 448 96
WIRE 448 112 448 96
WIRE 480 160 448 160
WIRE 368 192 368 96
WIRE 400 192 368 192
WIRE 480 208 480 160
WIRE 480 208 448 208
WIRE 448 224 448 208
FLAG 448 -48 VDD
IOPIN 448 -48 In
FLAG 352 96 In
IOPIN 352 96 In
FLAG 480 96 Out
IOPIN 480 96 Out
FLAG 448 224 GND
IOPIN 448 224 BiDir
SYMBOL nmos4 400 112 R0
WINDOW 0 59 18 Left 0
WINDOW 3 146 72 Left 0
WINDOW 123 150 101 Left 0
SYMATTR InstName M1
SYMATTR Value N_1u
SYMATTR Value2 L=1u W=190u
SYMBOL pmos4 400 80 M180
WINDOW 123 102 100 Left 0
WINDOW 3 136 66 Left 0
SYMATTR Value2 L=1u W=400u
SYMATTR Value P_1u
SYMATTR InstName M2
TEXT 496 264 Left 0 !.lib cmosedu_models.txt
